
     RDKit          3D

  9  8  0  0  0  0  0  0  0  0999 V2000
    1.3913    0.2059    0.0717 C   0  0  0  0  0  0  0  0  0  0  0  0
    1.3480    1.3904    0.4985 O   0  0  0  0  0  0  0  0  0  0  0  0
    0.1890   -0.5229   -0.1887 N   0  0  0  0  0  0  0  0  0  0  0  0
   -1.1288    0.0619    0.0243 C   0  0  0  0  0  0  0  0  0  0  0  0
    2.3508   -0.2638   -0.0991 H   0  0  0  0  0  0  0  0  0  0  0  0
    0.2617   -1.5032   -0.5419 H   0  0  0  0  0  0  0  0  0  0  0  0
   -1.9156   -0.6757   -0.2400 H   0  0  0  0  0  0  0  0  0  0  0  0
   -1.2467    0.3463    1.0911 H   0  0  0  0  0  0  0  0  0  0  0  0
   -1.2497    0.9611   -0.6158 H   0  0  0  0  0  0  0  0  0  0  0  0
  1  2  2  0
  1  3  1  0
  3  4  1  0
  1  5  1  0
  3  6  1  0
  4  7  1  0
  4  8  1  0
  4  9  1  0
M  END
$$$$
